73292410
  -OEChem-09192622193D

 67 70  0     0  0  0  0  0  0999 V2000
   -5.7399    1.0306   -0.3384 O   0  0  0  0  0  0  0  0  0  0  0  0
    0.5858   -3.3389   -0.7175 O   0  0  0  0  0  0  0  0  0  0  0  0
    3.7258    3.9542    0.9863 O   0  0  0  0  0  0  0  0  0  0  0  0
    4.8907    0.4820   -2.0748 O   0  0  0  0  0  0  0  0  0  0  0  0
   -0.9502   -1.1819    0.6373 N   0  0  0  0  0  0  0  0  0  0  0  0
    0.3428   -0.8307    0.5330 N   0  0  0  0  0  0  0  0  0  0  0  0
   -3.1143   -0.0881    0.1592 C   0  0  0  0  0  0  0  0  0  0  0  0
   -5.2485    1.0260    1.0067 C   0  0  0  0  0  0  0  0  0  0  0  0
   -5.1927    0.1284   -1.3064 C   0  0  0  0  0  0  0  0  0  0  0  0
   -3.7104    1.0004    1.0609 C   0  0  0  0  0  0  0  0  0  0  0  0
   -3.6543    0.0978   -1.2648 C   0  0  0  0  0  0  0  0  0  0  0  0
   -1.5953   -0.0975    0.1995 C   0  0  0  0  0  0  0  0  0  0  0  0
   -5.8767   -0.1035    1.8336 C   0  0  0  0  0  0  0  0  0  0  0  0
   -5.7387    2.3561    1.6076 C   0  0  0  0  0  0  0  0  0  0  0  0
   -5.6355    0.6972   -2.6669 C   0  0  0  0  0  0  0  0  0  0  0  0
   -5.8041   -1.2734   -1.1807 C   0  0  0  0  0  0  0  0  0  0  0  0
   -0.7211    0.9381   -0.1814 C   0  0  0  0  0  0  0  0  0  0  0  0
    0.5341    0.4298    0.0480 C   0  0  0  0  0  0  0  0  0  0  0  0
    1.8272    1.0423   -0.1546 C   0  0  0  0  0  0  0  0  0  0  0  0
    1.3334   -1.7392    0.9109 C   0  0  0  0  0  0  0  0  0  0  0  0
    2.7461    0.4592   -1.0272 C   0  0  0  0  0  0  0  0  0  0  0  0
    2.1564    2.2166    0.5223 C   0  0  0  0  0  0  0  0  0  0  0  0
    1.4413   -2.9792    0.2815 C   0  0  0  0  0  0  0  0  0  0  0  0
    2.2211   -1.3950    1.9304 C   0  0  0  0  0  0  0  0  0  0  0  0
    3.4044    2.8080    0.3263 C   0  0  0  0  0  0  0  0  0  0  0  0
    3.9941    1.0506   -1.2230 C   0  0  0  0  0  0  0  0  0  0  0  0
    2.4367   -3.8751    0.6715 C   0  0  0  0  0  0  0  0  0  0  0  0
    3.2166   -2.2908    2.3204 C   0  0  0  0  0  0  0  0  0  0  0  0
    4.3233    2.2249   -0.5463 C   0  0  0  0  0  0  0  0  0  0  0  0
    3.3242   -3.5310    1.6909 C   0  0  0  0  0  0  0  0  0  0  0  0
    0.9701   -3.0052   -2.0493 C   0  0  0  0  0  0  0  0  0  0  0  0
    5.0187    4.5049    0.7390 C   0  0  0  0  0  0  0  0  0  0  0  0
    4.4888   -0.7177   -2.7343 C   0  0  0  0  0  0  0  0  0  0  0  0
   -3.4464   -1.0657    0.5305 H   0  0  0  0  0  0  0  0  0  0  0  0
   -3.3645    0.8742    2.0950 H   0  0  0  0  0  0  0  0  0  0  0  0
   -3.3257    1.9739    0.7254 H   0  0  0  0  0  0  0  0  0  0  0  0
   -3.2673   -0.6872   -1.9275 H   0  0  0  0  0  0  0  0  0  0  0  0
   -3.2680    1.0489   -1.6577 H   0  0  0  0  0  0  0  0  0  0  0  0
   -5.4500   -1.0810    1.6042 H   0  0  0  0  0  0  0  0  0  0  0  0
   -5.7222    0.0574    2.9066 H   0  0  0  0  0  0  0  0  0  0  0  0
   -6.9539   -0.1720    1.6452 H   0  0  0  0  0  0  0  0  0  0  0  0
   -5.4031    2.4838    2.6422 H   0  0  0  0  0  0  0  0  0  0  0  0
   -6.8335    2.4134    1.5878 H   0  0  0  0  0  0  0  0  0  0  0  0
   -5.3766    3.2073    1.0191 H   0  0  0  0  0  0  0  0  0  0  0  0
   -5.2845    1.7283   -2.7917 H   0  0  0  0  0  0  0  0  0  0  0  0
   -5.2547    0.0993   -3.5017 H   0  0  0  0  0  0  0  0  0  0  0  0
   -6.7290    0.7351   -2.7368 H   0  0  0  0  0  0  0  0  0  0  0  0
   -5.6022   -1.8756   -2.0738 H   0  0  0  0  0  0  0  0  0  0  0  0
   -5.4032   -1.8334   -0.3346 H   0  0  0  0  0  0  0  0  0  0  0  0
   -6.8892   -1.2144   -1.0407 H   0  0  0  0  0  0  0  0  0  0  0  0
   -0.9689    1.9166   -0.5683 H   0  0  0  0  0  0  0  0  0  0  0  0
    2.4432   -0.4431   -1.5452 H   0  0  0  0  0  0  0  0  0  0  0  0
    1.4496    2.6793    1.2078 H   0  0  0  0  0  0  0  0  0  0  0  0
    2.1466   -0.4411    2.4467 H   0  0  0  0  0  0  0  0  0  0  0  0
    2.5266   -4.8432    0.1862 H   0  0  0  0  0  0  0  0  0  0  0  0
    3.9057   -2.0243    3.1164 H   0  0  0  0  0  0  0  0  0  0  0  0
    5.3084    2.6360   -0.7408 H   0  0  0  0  0  0  0  0  0  0  0  0
    4.0989   -4.2288    1.9951 H   0  0  0  0  0  0  0  0  0  0  0  0
    0.4035   -3.6399   -2.7363 H   0  0  0  0  0  0  0  0  0  0  0  0
    2.0382   -3.1791   -2.2163 H   0  0  0  0  0  0  0  0  0  0  0  0
    0.7205   -1.9617   -2.2600 H   0  0  0  0  0  0  0  0  0  0  0  0
    5.1046    5.4125    1.3454 H   0  0  0  0  0  0  0  0  0  0  0  0
    5.1339    4.8079   -0.3072 H   0  0  0  0  0  0  0  0  0  0  0  0
    5.8144    3.8265    1.0654 H   0  0  0  0  0  0  0  0  0  0  0  0
    3.6323   -0.5470   -3.3954 H   0  0  0  0  0  0  0  0  0  0  0  0
    4.3083   -1.5287   -2.0202 H   0  0  0  0  0  0  0  0  0  0  0  0
    5.3236   -1.0323   -3.3691 H   0  0  0  0  0  0  0  0  0  0  0  0
  1  8  1  0  0  0  0
  1  9  1  0  0  0  0
  2 23  1  0  0  0  0
  2 31  1  0  0  0  0
  3 25  1  0  0  0  0
  3 32  1  0  0  0  0
  4 26  1  0  0  0  0
  4 33  1  0  0  0  0
  5  6  1  0  0  0  0
  5 12  2  0  0  0  0
  6 18  1  0  0  0  0
  6 20  1  0  0  0  0
  7 10  1  0  0  0  0
  7 11  1  0  0  0  0
  7 12  1  0  0  0  0
  7 34  1  0  0  0  0
  8 10  1  0  0  0  0
  8 13  1  0  0  0  0
  8 14  1  0  0  0  0
  9 11  1  0  0  0  0
  9 15  1  0  0  0  0
  9 16  1  0  0  0  0
 10 35  1  0  0  0  0
 10 36  1  0  0  0  0
 11 37  1  0  0  0  0
 11 38  1  0  0  0  0
 12 17  1  0  0  0  0
 13 39  1  0  0  0  0
 13 40  1  0  0  0  0
 13 41  1  0  0  0  0
 14 42  1  0  0  0  0
 14 43  1  0  0  0  0
 14 44  1  0  0  0  0
 15 45  1  0  0  0  0
 15 46  1  0  0  0  0
 15 47  1  0  0  0  0
 16 48  1  0  0  0  0
 16 49  1  0  0  0  0
 16 50  1  0  0  0  0
 17 18  2  0  0  0  0
 17 51  1  0  0  0  0
 18 19  1  0  0  0  0
 19 21  2  0  0  0  0
 19 22  1  0  0  0  0
 20 23  1  0  0  0  0
 20 24  2  0  0  0  0
 21 26  1  0  0  0  0
 21 52  1  0  0  0  0
 22 25  2  0  0  0  0
 22 53  1  0  0  0  0
 23 27  2  0  0  0  0
 24 28  1  0  0  0  0
 24 54  1  0  0  0  0
 25 29  1  0  0  0  0
 26 29  2  0  0  0  0
 27 30  1  0  0  0  0
 27 55  1  0  0  0  0
 28 30  2  0  0  0  0
 28 56  1  0  0  0  0
 29 57  1  0  0  0  0
 30 58  1  0  0  0  0
 31 59  1  0  0  0  0
 31 60  1  0  0  0  0
 31 61  1  0  0  0  0
 32 62  1  0  0  0  0
 32 63  1  0  0  0  0
 32 64  1  0  0  0  0
 33 65  1  0  0  0  0
 33 66  1  0  0  0  0
 33 67  1  0  0  0  0
M  END
> <PUBCHEM_COMPOUND_CID>
73292410

> <PUBCHEM_CONFORMER_RMSD>
1

> <PUBCHEM_CONFORMER_DIVERSEORDER>
4
16
68
66
81
73
67
59
84
26
38
32
39
23
71
79
58
72
83
57
82
34
77
63
33
37
18
74
85
64
15
7
78
40
53
52
54
60
8
61
3
21
44
76
30
75
56
24
31
14
55
80
27
43
65
13
20
69
49
51
45
48
42
70
2
22
62
25
5
46
12
29
10
6
1
36
9
11
28
41
19
47
35
50
17

> <PUBCHEM_MMFF94_PARTIAL_CHARGES>
35
1 -0.56
12 0.11
17 -0.15
18 -0.2
19 0.05
2 -0.36
20 -0.02
21 -0.15
22 -0.15
23 0.08
24 -0.15
25 0.08
26 0.08
27 -0.15
28 -0.15
29 -0.15
3 -0.36
30 -0.15
31 0.28
32 0.28
33 0.28
4 -0.36
5 -0.71
51 0.15
52 0.15
53 0.15
54 0.15
55 0.15
56 0.15
57 0.15
58 0.15
6 0.59
7 0.18
8 0.28
9 0.28

> <PUBCHEM_EFFECTIVE_ROTOR_COUNT>
7.2

> <PUBCHEM_PHARMACOPHORE_FEATURES>
11
1 1 acceptor
1 2 acceptor
1 3 acceptor
1 4 acceptor
1 5 acceptor
3 8 13 14 hydrophobe
3 9 15 16 hydrophobe
5 5 6 12 17 18 rings
6 1 7 8 9 10 11 rings
6 19 21 22 25 26 29 rings
6 20 23 24 27 28 30 rings

> <PUBCHEM_HEAVY_ATOM_COUNT>
33

> <PUBCHEM_ATOM_DEF_STEREO_COUNT>
0

> <PUBCHEM_ATOM_UDEF_STEREO_COUNT>
0

> <PUBCHEM_BOND_DEF_STEREO_COUNT>
0

> <PUBCHEM_BOND_UDEF_STEREO_COUNT>
0

> <PUBCHEM_ISOTOPIC_ATOM_COUNT>
0

> <PUBCHEM_COMPONENT_COUNT>
1

> <PUBCHEM_CACTVS_TAUTO_COUNT>
1

> <PUBCHEM_CONFORMER_ID>
045E5A7A00000004

> <PUBCHEM_MMFF94_ENERGY>
142.9974

> <PUBCHEM_FEATURE_SELFOVERLAP>
55.826

> <PUBCHEM_SHAPE_FINGERPRINT>
10305334 12 17263231566291411768
10369192 42 17024048101488110878
10462674 125 11235157963334824021
10675989 125 18410863178987064608
11049842 53 16916236442673024399
11578080 2 17025189316995233427
12422481 6 17313926611352583160
12616971 3 18338795590649039475
12730499 353 18261968413321129139
131258 43 17538853478010779858
13955234 65 18334575715849372402
14955137 171 18336821980152099306
17913733 40 18261677072773066929
17980427 26 18340475768775465916
1813 80 18051973615177100627
20600515 1 16959542769817582240
21033648 144 18334287712881106453
21033648 29 18119259595444790824
21304303 282 17689974045207357642
22393880 68 18338799017316010743
23559900 14 16630251282123973541
24771293 8 18199453403977242986
283562 15 17832982033136873035
3411729 13 18260841379458459498
44802255 64 16736970022983103342
460360 51 17971192517543707805
5104073 3 18188503380745571481
513532 50 17989201543418016786
633830 44 18272374208346206605
6669772 16 18339920541315420558
9841814 1 18043529417272892722

> <PUBCHEM_SHAPE_MULTIPOLES>
645.69
14.09
4.71
2.31
20.28
0
-0.85
-8.36
-1.85
-9.33
1.88
0.02
0.84
-1.36

> <PUBCHEM_SHAPE_SELFOVERLAP>
1388.392

> <PUBCHEM_SHAPE_VOLUME>
359

> <PUBCHEM_COORDINATE_TYPE>
2
5
10

$$$$
