2779853
  -OEChem-09192622183D

 19 20  0     0  0  0  0  0  0999 V2000
   -2.2403   -0.9371   -0.0002 S   0  0  0  0  0  0  0  0  0  0  0  0
   -2.3928   -1.6108    1.2720 O   0  0  0  0  0  0  0  0  0  0  0  0
   -2.3919   -1.6110   -1.2721 O   0  0  0  0  0  0  0  0  0  0  0  0
    3.9596    0.2651   -0.0016 O   0  5  0  0  0  0  0  0  0  0  0  0
    3.0800   -1.7462    0.0002 O   0  0  0  0  0  0  0  0  0  0  0  0
    2.9632   -0.4972   -0.0003 N   0  3  0  0  0  0  0  0  0  0  0  0
   -0.6902   -0.1422    0.0003 C   0  0  0  0  0  0  0  0  0  0  0  0
   -0.8679    1.2385    0.0000 C   0  0  0  0  0  0  0  0  0  0  0  0
   -3.1101    0.5723   -0.0007 C   0  0  0  0  0  0  0  0  0  0  0  0
   -2.2749    1.6223   -0.0006 C   0  0  0  0  0  0  0  0  0  0  0  0
    0.5431   -0.7594    0.0008 C   0  0  0  0  0  0  0  0  0  0  0  0
    0.2454    2.0623    0.0002 C   0  0  0  0  0  0  0  0  0  0  0  0
    1.6618    0.0720    0.0011 C   0  0  0  0  0  0  0  0  0  0  0  0
    1.5151    1.4712    0.0010 C   0  0  0  0  0  0  0  0  0  0  0  0
   -4.1892    0.6288   -0.0011 H   0  0  0  0  0  0  0  0  0  0  0  0
   -2.5902    2.6552   -0.0009 H   0  0  0  0  0  0  0  0  0  0  0  0
    0.6095   -1.8416    0.0007 H   0  0  0  0  0  0  0  0  0  0  0  0
    0.1473    3.1433   -0.0001 H   0  0  0  0  0  0  0  0  0  0  0  0
    2.3778    2.1340    0.0009 H   0  0  0  0  0  0  0  0  0  0  0  0
  1  2  2  0  0  0  0
  1  3  2  0  0  0  0
  1  7  1  0  0  0  0
  1  9  1  0  0  0  0
  4  6  1  0  0  0  0
  5  6  2  0  0  0  0
  6 13  1  0  0  0  0
  7  8  2  0  0  0  0
  7 11  1  0  0  0  0
  8 10  1  0  0  0  0
  8 12  1  0  0  0  0
  9 10  2  0  0  0  0
  9 15  1  0  0  0  0
 10 16  1  0  0  0  0
 11 13  2  0  0  0  0
 11 17  1  0  0  0  0
 12 14  2  0  0  0  0
 12 18  1  0  0  0  0
 13 14  1  0  0  0  0
 14 19  1  0  0  0  0
M  CHG  2   4  -1   6   1
M  END
> <PUBCHEM_COMPOUND_CID>
2779853

> <PUBCHEM_CONFORMER_RMSD>
0.4

> <PUBCHEM_CONFORMER_DIVERSEORDER>
1

> <PUBCHEM_MMFF94_PARTIAL_CHARGES>
19
1 1.33
10 -0.18
11 -0.15
12 -0.15
13 0.13
14 -0.15
15 0.15
16 0.15
17 0.15
18 0.15
19 0.15
2 -0.65
3 -0.65
4 -0.52
5 -0.52
6 0.91
7 -0.01
8 0.03
9 -0.17

> <PUBCHEM_EFFECTIVE_ROTOR_COUNT>
1

> <PUBCHEM_PHARMACOPHORE_FEATURES>
7
1 2 acceptor
1 3 acceptor
1 4 acceptor
1 4 anion
1 5 acceptor
5 1 7 8 9 10 rings
6 7 8 11 12 13 14 rings

> <PUBCHEM_HEAVY_ATOM_COUNT>
14

> <PUBCHEM_ATOM_DEF_STEREO_COUNT>
0

> <PUBCHEM_ATOM_UDEF_STEREO_COUNT>
0

> <PUBCHEM_BOND_DEF_STEREO_COUNT>
0

> <PUBCHEM_BOND_UDEF_STEREO_COUNT>
0

> <PUBCHEM_ISOTOPIC_ATOM_COUNT>
0

> <PUBCHEM_COMPONENT_COUNT>
1

> <PUBCHEM_CACTVS_TAUTO_COUNT>
1

> <PUBCHEM_CONFORMER_ID>
002A6ACD00000001

> <PUBCHEM_MMFF94_ENERGY>
29.9356

> <PUBCHEM_FEATURE_SELFOVERLAP>
35.685

> <PUBCHEM_SHAPE_FINGERPRINT>
11132069 177 18340480080616526152
11769659 78 18342450460997853758
12032990 46 18410018701730496986
12932764 1 17988085611481428104
13024252 1 17458348520396774545
13296908 3 18342179947094317078
14115302 16 17749401377125012927
14128692 85 18341611563627542580
14325111 11 18410573942529027168
16945 1 17978229692387482757
18186145 218 17240203231571033254
20201158 50 18410855442995849847
20871998 184 18271811194210518167
21501502 16 18339082699832012597
2334 1 18338517568014040872
23402539 116 17988351578006810709
23463225 33 18410013195856749660
23552423 10 18262800795004941277
23559900 14 18339638916162657754
2748010 2 18339074994560443828
3312278 4 18408046195340305976
34934 24 18337381660944012520
528886 8 18410569557056142817
69090 78 18271519806739510021
7364860 26 18197496435913759712
81228 2 18266183820622306688
8809292 202 18333456421443936043

> <PUBCHEM_SHAPE_MULTIPOLES>
263.5
5.28
2.04
0.77
3.17
0.21
0
-1.43
0
-0.43
0
-0.46
-0.28
0

> <PUBCHEM_SHAPE_SELFOVERLAP>
566.326

> <PUBCHEM_SHAPE_VOLUME>
146.4

> <PUBCHEM_COORDINATE_TYPE>
2
5
10

$$$$
