6333901
     RDKit          3D

 67 65  0  0  1  0  0  0  0  0999 V2000
    0.0000    0.0000    0.0000 Au  0  0  0  0  0 15  0  0  0  0  0  0
    0.4496    0.5002   -3.6332 S   0  0  0  0  0  0  0  0  0  0  0  0
    0.1217   -0.2343   -0.4316 P   0  0  0  0  0  0  0  0  0  0  0  0
   -0.7790   -0.4641   -1.4964 O   0  0  0  0  0  0  0  0  0  0  0  0
    1.8259    1.7892   -0.8419 O   0  0  0  0  0  0  0  0  0  0  0  0
    1.6313   -1.6042   -0.0471 O   0  0  0  0  0  0  0  0  0  0  0  0
   -0.4436   -1.0304    1.7878 O   0  0  0  0  0  0  0  0  0  0  0  0
   -3.5062   -0.4568   -0.8134 O   0  0  0  0  0  0  0  0  0  0  0  0
    3.7068    1.6133   -2.1439 O   0  0  0  0  0  0  0  0  0  0  0  0
    3.4407   -1.4318    1.3340 O   0  0  0  0  0  0  0  0  0  0  0  0
   -0.5882    0.6242    3.4159 O   0  0  0  0  0  0  0  0  0  0  0  0
   -3.6772    1.8440   -0.7154 O   0  0  0  0  0  0  0  0  0  0  0  0
    1.6531    0.2388    0.3941 C   0  0  0  0  0  0  0  0  0  0  0  0
   -0.5868    1.2919   -1.1518 C   0  0  0  0  0  0  0  0  0  0  0  0
   -1.1066   -0.8420    0.7709 C   0  0  0  0  0  0  0  0  0  0  0  0
    1.3831    0.4652   -1.0899 C   0  0  0  0  0  0  0  0  0  0  0  0
    1.2030   -0.3178    0.1938 C   0  0  0  0  0  0  0  0  0  0  0  0
    0.1092    0.5384   -1.9005 C   0  0  0  0  0  0  0  0  0  0  0  0
   -0.1479   -0.1131    0.7812 C   0  0  0  0  0  0  0  0  0  0  0  0
   -1.2658    0.0027   -0.2508 C   0  0  0  0  0  0  0  0  0  0  0  0
    2.7596   -0.7748    0.1812 C   0  0  0  0  0  0  0  0  0  0  0  0
   -0.7989    2.2536    0.0023 C   0  0  0  0  0  0  0  0  0  0  0  0
   -1.9707   -1.8606    0.0505 C   0  0  0  0  0  0  0  0  0  0  0  0
   -2.5148   -0.6824    0.1644 C   0  0  0  0  0  0  0  0  0  0  0  0
    2.9804    2.3207   -1.3815 C   0  0  0  0  0  0  0  0  0  0  0  0
    2.7554   -2.1267    0.5415 C   0  0  0  0  0  0  0  0  0  0  0  0
   -0.6556   -0.5973    3.0983 C   0  0  0  0  0  0  0  0  0  0  0  0
    3.3464    3.7385   -1.0452 C   0  0  0  0  0  0  0  0  0  0  0  0
    3.1662   -3.5217    0.2414 C   0  0  0  0  0  0  0  0  0  0  0  0
   -0.9748   -1.5832    4.1867 C   0  0  0  0  0  0  0  0  0  0  0  0
   -4.0262    0.7403   -1.2008 C   0  0  0  0  0  0  0  0  0  0  0  0
   -5.0766    0.7309   -2.2703 C   0  0  0  0  0  0  0  0  0  0  0  0
    0.3242   -1.2072   -1.4315 H   0  0  0  0  0  0  0  0  0  0  0  0
    2.0382    1.2128   -0.0016 H   0  0  0  0  0  0  0  0  0  0  0  0
    1.4955    0.3117    1.4787 H   0  0  0  0  0  0  0  0  0  0  0  0
    0.1484    1.6662   -1.8650 H   0  0  0  0  0  0  0  0  0  0  0  0
   -1.5508    0.9869   -1.5954 H   0  0  0  0  0  0  0  0  0  0  0  0
   -1.8074   -0.0281    1.0913 H   0  0  0  0  0  0  0  0  0  0  0  0
   -0.6217   -1.2486    1.6704 H   0  0  0  0  0  0  0  0  0  0  0  0
    2.1248   -0.0359   -1.7785 H   0  0  0  0  0  0  0  0  0  0  0  0
    1.9428    0.1086    0.9101 H   0  0  0  0  0  0  0  0  0  0  0  0
   -0.4359    1.5115   -1.7206 H   0  0  0  0  0  0  0  0  0  0  0  0
   -0.1432    0.8769    1.2926 H   0  0  0  0  0  0  0  0  0  0  0  0
   -1.5337    1.0568   -0.4624 H   0  0  0  0  0  0  0  0  0  0  0  0
    2.5039   -1.7582    0.6014 H   0  0  0  0  0  0  0  0  0  0  0  0
    3.6824   -0.3462    0.6049 H   0  0  0  0  0  0  0  0  0  0  0  0
    2.9035   -0.8336   -0.9253 H   0  0  0  0  0  0  0  0  0  0  0  0
   -0.1811    3.1648   -0.0798 H   0  0  0  0  0  0  0  0  0  0  0  0
   -0.5946    1.7977    0.9815 H   0  0  0  0  0  0  0  0  0  0  0  0
   -1.8801    2.5375    0.0134 H   0  0  0  0  0  0  0  0  0  0  0  0
   -2.4807   -2.4863    0.8125 H   0  0  0  0  0  0  0  0  0  0  0  0
   -2.6965   -1.3193   -0.5959 H   0  0  0  0  0  0  0  0  0  0  0  0
   -1.3548   -2.5228   -0.5753 H   0  0  0  0  0  0  0  0  0  0  0  0
   -2.8470   -0.2017    1.1098 H   0  0  0  0  0  0  0  0  0  0  0  0
   -2.4476   -1.7578    0.2991 H   0  0  0  0  0  0  0  0  0  0  0  0
    4.3982    3.9454   -1.3674 H   0  0  0  0  0  0  0  0  0  0  0  0
    3.3043    3.9574    0.0227 H   0  0  0  0  0  0  0  0  0  0  0  0
    2.7176    4.4453   -1.6619 H   0  0  0  0  0  0  0  0  0  0  0  0
    3.7232   -3.9964    1.0906 H   0  0  0  0  0  0  0  0  0  0  0  0
    3.7144   -3.6416   -0.6927 H   0  0  0  0  0  0  0  0  0  0  0  0
    2.2061   -4.1069    0.1565 H   0  0  0  0  0  0  0  0  0  0  0  0
   -1.3951   -2.5218    3.8123 H   0  0  0  0  0  0  0  0  0  0  0  0
   -1.6208   -1.0632    4.9271 H   0  0  0  0  0  0  0  0  0  0  0  0
   -0.0222   -1.7997    4.7358 H   0  0  0  0  0  0  0  0  0  0  0  0
   -5.0885    1.7271   -2.7618 H   0  0  0  0  0  0  0  0  0  0  0  0
   -4.8820   -0.0617   -3.0169 H   0  0  0  0  0  0  0  0  0  0  0  0
   -6.0577    0.5798   -1.8092 H   0  0  0  0  0  0  0  0  0  0  0  0
  2 18  1  0
  3 13  1  0
  3 14  1  0
  3 15  1  0
  3 33  1  0
  4 18  1  0
  4 20  1  0
  5 16  1  0
  5 25  1  0
  6 17  1  0
  6 26  1  0
  7 19  1  0
  7 27  1  0
  8 24  1  0
  8 31  1  0
  9 25  2  0
 10 26  2  0
 11 27  2  0
 12 31  2  0
 13 21  1  0
 13 34  1  0
 13 35  1  0
 14 22  1  0
 14 36  1  0
 14 37  1  0
 15 23  1  0
 15 38  1  0
 15 39  1  0
 16 17  1  0
 16 18  1  0
 16 40  1  0
 17 19  1  0
 17 41  1  0
 18 42  1  0
 19 20  1  0
 19 43  1  0
 20 24  1  0
 20 44  1  0
 21 45  1  0
 21 46  1  0
 21 47  1  0
 22 48  1  0
 22 49  1  0
 22 50  1  0
 23 51  1  0
 23 52  1  0
 23 53  1  0
 24 54  1  0
 24 55  1  0
 25 28  1  0
 26 29  1  0
 27 30  1  0
 28 56  1  0
 28 57  1  0
 28 58  1  0
 29 59  1  0
 29 60  1  0
 29 61  1  0
 30 62  1  0
 30 63  1  0
 30 64  1  0
 31 32  1  0
 32 65  1  0
 32 66  1  0
 32 67  1  0
M  CHG  3   1   1   2  -1   3   1
M  END
>  <PUBCHEM_COMPOUND_CID>  (1) 
6333901

>  <PUBCHEM_COMPOUND_CANONICALIZED>  (1) 
1

>  <PUBCHEM_CACTVS_COMPLEXITY>  (1) 
598

>  <PUBCHEM_CACTVS_HBOND_ACCEPTOR>  (1) 
10

>  <PUBCHEM_CACTVS_HBOND_DONOR>  (1) 
0

>  <PUBCHEM_CACTVS_ROTATABLE_BOND>  (1) 
12

>  <PUBCHEM_CACTVS_SUBSKEYS>  (1) 
AAADcfB4PAJAAAAAAAAAAgAAAAAAAAAAAAAkAAAAAAAAAAAAAAAAGgwAAAAQCBSswAKCCAAABCAIAACQCAAAAAAAAAAAAAAAAAABAAIAAAACAAAFAAACAAHAYAwAAAAAAAAAAAAAAAAAAAAAAAAAAAAAAA==

>  <PUBCHEM_IUPAC_OPENEYE_NAME>  (1) 
gold(1+);3,4,5-triacetoxy-6-(acetoxymethyl)tetrahydropyran-2-thiolate;triethylphosphonium

>  <PUBCHEM_IUPAC_CAS_NAME>  (1) 
gold(1+);3,4,5-triacetyloxy-6-(acetyloxymethyl)-2-oxanethiolate;triethylphosphonium

>  <PUBCHEM_IUPAC_NAME_MARKUP>  (1) 
gold(1+);3,4,5-triacetyloxy-6-(acetyloxymethyl)oxane-2-thiolate;triethylphosphanium

>  <PUBCHEM_IUPAC_NAME>  (1) 
gold(1+);3,4,5-triacetyloxy-6-(acetyloxymethyl)oxane-2-thiolate;triethylphosphanium

>  <PUBCHEM_IUPAC_SYSTEMATIC_NAME>  (1) 
gold(1+);3,4,5-triacetyloxy-6-(acetyloxymethyl)oxane-2-thiolate;triethylphosphanium

>  <PUBCHEM_IUPAC_TRADITIONAL_NAME>  (1) 
gold(1+);3,4,5-triacetoxy-6-(acetoxymethyl)tetrahydropyran-2-thiolate;triethylphosphonium

>  <PUBCHEM_IUPAC_INCHI>  (1) 
InChI=1S/C14H20O9S.C6H15P.Au/c1-6(15)19-5-10-11(20-7(2)16)12(21-8(3)17)13(14(24)23-10)22-9(4)18;1-4-7(5-2)6-3;/h10-14,24H,5H2,1-4H3;4-6H2,1-3H3;/q;;+1

>  <PUBCHEM_IUPAC_INCHIKEY>  (1) 
AUJRCFUBUPVWSZ-UHFFFAOYSA-N

>  <PUBCHEM_EXACT_MASS>  (1) 
679.140511

>  <PUBCHEM_MOLECULAR_FORMULA>  (1) 
C20H35AuO9PS+

>  <PUBCHEM_MOLECULAR_WEIGHT>  (1) 
679.5

>  <PUBCHEM_SMILES>  (1) 
CC[PH+](CC)CC.CC(=O)OCC1C(C(C(C(O1)[S-])OC(=O)C)OC(=O)C)OC(=O)C.[Au+]

>  <PUBCHEM_CONNECTIVITY_SMILES>  (1) 
CC[PH+](CC)CC.CC(=O)OCC1C(C(C(C(O1)[S-])OC(=O)C)OC(=O)C)OC(=O)C.[Au+]

>  <PUBCHEM_CACTVS_TPSA>  (1) 
115

>  <PUBCHEM_MONOISOTOPIC_WEIGHT>  (1) 
679.140511

>  <PUBCHEM_TOTAL_CHARGE>  (1) 
1

>  <PUBCHEM_HEAVY_ATOM_COUNT>  (1) 
32

>  <PUBCHEM_ATOM_DEF_STEREO_COUNT>  (1) 
0

>  <PUBCHEM_ATOM_UDEF_STEREO_COUNT>  (1) 
5

>  <PUBCHEM_BOND_DEF_STEREO_COUNT>  (1) 
0

>  <PUBCHEM_BOND_UDEF_STEREO_COUNT>  (1) 
0

>  <PUBCHEM_ISOTOPIC_ATOM_COUNT>  (1) 
0

>  <PUBCHEM_COMPONENT_COUNT>  (1) 
3

>  <PUBCHEM_CACTVS_TAUTO_COUNT>  (1) 
-1

>  <PUBCHEM_NONSTANDARDBOND>  (1) 
1  2  6
1  3  6

>  <PUBCHEM_COORDINATE_TYPE>  (1) 
1
5
255

>  <PUBCHEM_BONDANNOTATIONS>  (1) 
18  2  3
20  24  3
16  5  3
17  6  3
19  7  3

$$$$
