6321424
     RDKit          3D

136142  0  0  1  0  0  0  0  0999 V2000
   -5.4072    1.8387    0.5705 O   0  0  0  0  0  0  0  0  0  0  0  0
   -4.8543    1.7254   -1.7259 O   0  0  0  0  0  0  0  0  0  0  0  0
   -4.8948   -2.2510   -0.6069 O   0  0  0  0  0  0  0  0  0  0  0  0
   -3.4347   -6.5412   -1.3566 O   0  0  0  0  0  0  0  0  0  0  0  0
   -3.1467   -4.6535    1.6971 O   0  0  0  0  0  0  0  0  0  0  0  0
   -4.6816   -8.5126   -0.0218 O   0  0  0  0  0  0  0  0  0  0  0  0
   -5.5970   -2.5935    1.5485 O   0  0  0  0  0  0  0  0  0  0  0  0
    1.6798    0.5050   -0.6542 O   0  0  0  0  0  0  0  0  0  0  0  0
    3.7137   -0.4295   -0.0592 O   0  0  0  0  0  0  0  0  0  0  0  0
    6.8599    1.1757    1.0512 O   0  0  0  0  0  0  0  0  0  0  0  0
    5.1777    3.2122   -0.6429 O   0  0  0  0  0  0  0  0  0  0  0  0
    8.4130    0.6848   -0.5959 O   0  0  0  0  0  0  0  0  0  0  0  0
   10.9981    1.3542    2.5386 O   0  0  0  0  0  0  0  0  0  0  0  0
   11.1078   -0.8305    0.4074 O   0  0  0  0  0  0  0  0  0  0  0  0
   -5.8403    1.4147   -0.7283 C   0  0  2  0  0  0  0  0  0  0  0  0
   -5.6760    3.2150    0.8491 C   0  0  1  0  0  0  0  0  0  0  0  0
   -7.2059    3.4024    1.0214 C   0  0  2  0  0  0  0  0  0  0  0  0
   -7.1410    2.1283   -1.1562 C   0  0  0  0  0  0  0  0  0  0  0  0
   -6.0703   -0.1055   -0.6677 C   0  0  0  0  0  0  0  0  0  0  0  0
   -7.9908    2.4992    0.0499 C   0  0  0  0  0  0  0  0  0  0  0  0
   -4.7574   -0.8305   -0.4092 C   0  0  2  0  0  0  0  0  0  0  0  0
   -3.5767    1.1201   -1.4877 C   0  0  1  0  0  0  0  0  0  0  0  0
   -3.7265   -0.3928   -1.4359 C   0  0  0  0  0  0  0  0  0  0  0  0
   -4.8379    3.6529    2.0821 C   0  0  2  0  0  0  0  0  0  0  0  0
   -3.5655   -4.9539    0.3718 C   0  0  2  0  0  0  0  0  0  0  0  0
   -5.0201   -4.4894    0.0831 C   0  0  2  0  0  0  0  0  0  0  0  0
   -3.4204   -6.4489    0.0907 C   0  0  1  0  0  0  0  0  0  0  0  0
   -7.6007    4.8714    0.8456 C   0  0  0  0  0  0  0  0  0  0  0  0
   -2.6135    1.5585   -2.6143 C   0  0  0  0  0  0  0  0  0  0  0  0
   -3.3145    3.5596    1.8242 C   0  0  0  0  0  0  0  0  0  0  0  0
   -4.4991   -7.3274    0.7548 C   0  0  1  0  0  0  0  0  0  0  0  0
   -2.5872   -4.4519   -0.6672 C   0  0  0  0  0  0  0  0  0  0  0  0
   -5.1521    2.8236    3.3377 C   0  0  0  0  0  0  0  0  0  0  0  0
   -5.2150   -3.0240    0.4708 C   0  0  0  0  0  0  0  0  0  0  0  0
   -6.0702   -5.3829    0.6975 C   0  0  0  0  0  0  0  0  0  0  0  0
   -5.8434   -6.6782    0.9813 C   0  0  0  0  0  0  0  0  0  0  0  0
   -2.6600   -5.4104   -1.8237 C   0  0  0  0  0  0  0  0  0  0  0  0
   -1.2942    0.8220   -2.5813 C   0  0  0  0  0  0  0  0  0  0  0  0
   -2.8181    4.4489    0.6924 C   0  0  0  0  0  0  0  0  0  0  0  0
   -1.7470   -3.4138   -0.5140 C   0  0  0  0  0  0  0  0  0  0  0  0
   -0.1111    1.2164   -2.0637 C   0  0  0  0  0  0  0  0  0  0  0  0
    1.1378    0.3065   -1.9723 C   0  0  2  0  0  0  0  0  0  0  0  0
   -6.9073   -7.5456    1.5954 C   0  0  0  0  0  0  0  0  0  0  0  0
    0.9346   -1.2306   -2.2511 C   0  0  2  0  0  0  0  0  0  0  0  0
   -0.8278   -2.9053   -1.5089 C   0  0  0  0  0  0  0  0  0  0  0  0
    3.0867    0.7352   -0.5944 C   0  0  2  0  0  0  0  0  0  0  0  0
    5.6813    1.0251    0.2461 C   0  0  2  0  0  0  0  0  0  0  0  0
    4.8014    2.2874    0.3976 C   0  0  2  0  0  0  0  0  0  0  0  0
    3.3109    1.9601    0.2912 C   0  0  0  0  0  0  0  0  0  0  0  0
    0.0278   -1.9059   -1.2333 C   0  0  0  0  0  0  0  0  0  0  0  0
    4.8913   -0.2031    0.7226 C   0  0  2  0  0  0  0  0  0  0  0  0
    0.0988    2.6082   -1.5139 C   0  0  0  0  0  0  0  0  0  0  0  0
    2.2592   -1.9973   -2.3125 C   0  0  0  0  0  0  0  0  0  0  0  0
    7.9750    1.6897    0.3159 C   0  0  2  0  0  0  0  0  0  0  0  0
    9.0298    2.0873    1.3469 C   0  0  0  0  0  0  0  0  0  0  0  0
    9.9928    0.9369    1.5945 C   0  0  1  0  0  0  0  0  0  0  0  0
   10.7061    0.5488    0.2847 C   0  0  2  0  0  0  0  0  0  0  0  0
    5.7226   -1.4816    0.6565 C   0  0  0  0  0  0  0  0  0  0  0  0
    9.7951    0.7145   -0.9505 C   0  0  2  0  0  0  0  0  0  0  0  0
   10.1222    1.9567   -1.7785 C   0  0  0  0  0  0  0  0  0  0  0  0
    4.9517    4.5733   -0.2888 C   0  0  0  0  0  0  0  0  0  0  0  0
   10.6215    1.1037    3.8874 C   0  0  0  0  0  0  0  0  0  0  0  0
   -5.3461    3.8129   -0.0099 H   0  0  0  0  0  0  0  0  0  0  0  0
   -7.5184    3.1027    2.0274 H   0  0  0  0  0  0  0  0  0  0  0  0
   -7.7137    1.5105   -1.8588 H   0  0  0  0  0  0  0  0  0  0  0  0
   -6.9004    3.0442   -1.7137 H   0  0  0  0  0  0  0  0  0  0  0  0
   -6.4922   -0.4697   -1.6138 H   0  0  0  0  0  0  0  0  0  0  0  0
   -6.7870   -0.3665    0.1200 H   0  0  0  0  0  0  0  0  0  0  0  0
   -8.2819    1.5799    0.5748 H   0  0  0  0  0  0  0  0  0  0  0  0
   -8.9230    2.9757   -0.2740 H   0  0  0  0  0  0  0  0  0  0  0  0
   -4.3800   -0.6226    0.6000 H   0  0  0  0  0  0  0  0  0  0  0  0
   -3.1773    1.4867   -0.5352 H   0  0  0  0  0  0  0  0  0  0  0  0
   -4.0169   -0.7771   -2.4238 H   0  0  0  0  0  0  0  0  0  0  0  0
   -2.7755   -0.8660   -1.1886 H   0  0  0  0  0  0  0  0  0  0  0  0
   -5.0686    4.7011    2.3094 H   0  0  0  0  0  0  0  0  0  0  0  0
   -5.2292   -4.5424   -0.9970 H   0  0  0  0  0  0  0  0  0  0  0  0
   -2.4425   -6.8328    0.4192 H   0  0  0  0  0  0  0  0  0  0  0  0
   -7.0958    5.5099    1.5772 H   0  0  0  0  0  0  0  0  0  0  0  0
   -8.6789    5.0019    0.9867 H   0  0  0  0  0  0  0  0  0  0  0  0
   -7.3458    5.2342   -0.1564 H   0  0  0  0  0  0  0  0  0  0  0  0
   -3.0846    1.3718   -3.5891 H   0  0  0  0  0  0  0  0  0  0  0  0
   -2.4911    2.6452   -2.5793 H   0  0  0  0  0  0  0  0  0  0  0  0
   -2.7830    3.8589    2.7368 H   0  0  0  0  0  0  0  0  0  0  0  0
   -3.0222    2.5218    1.6248 H   0  0  0  0  0  0  0  0  0  0  0  0
   -4.1259   -7.6352    1.7399 H   0  0  0  0  0  0  0  0  0  0  0  0
   -4.9908    1.7543    3.1657 H   0  0  0  0  0  0  0  0  0  0  0  0
   -4.5099    3.1267    4.1723 H   0  0  0  0  0  0  0  0  0  0  0  0
   -6.1838    2.9655    3.6701 H   0  0  0  0  0  0  0  0  0  0  0  0
   -7.0500   -4.9459    0.8811 H   0  0  0  0  0  0  0  0  0  0  0  0
   -1.6724   -5.7748   -2.1216 H   0  0  0  0  0  0  0  0  0  0  0  0
   -3.1794   -4.9784   -2.6834 H   0  0  0  0  0  0  0  0  0  0  0  0
   -1.3751   -0.1773   -3.0034 H   0  0  0  0  0  0  0  0  0  0  0  0
   -3.1761    4.1048   -0.2814 H   0  0  0  0  0  0  0  0  0  0  0  0
   -3.1386    5.4852    0.8363 H   0  0  0  0  0  0  0  0  0  0  0  0
   -1.7238    4.4352    0.6604 H   0  0  0  0  0  0  0  0  0  0  0  0
   -2.1853   -4.7878    1.7580 H   0  0  0  0  0  0  0  0  0  0  0  0
   -1.7846   -2.8499    0.4200 H   0  0  0  0  0  0  0  0  0  0  0  0
    1.8291    0.6963   -2.7326 H   0  0  0  0  0  0  0  0  0  0  0  0
   -7.8190   -6.9816    1.8185 H   0  0  0  0  0  0  0  0  0  0  0  0
   -7.1800   -8.3592    0.9155 H   0  0  0  0  0  0  0  0  0  0  0  0
   -6.5489   -7.9806    2.5345 H   0  0  0  0  0  0  0  0  0  0  0  0
   -4.5700   -8.2286   -0.9504 H   0  0  0  0  0  0  0  0  0  0  0  0
    0.4855   -1.3236   -3.2493 H   0  0  0  0  0  0  0  0  0  0  0  0
   -0.8733   -3.3135   -2.5152 H   0  0  0  0  0  0  0  0  0  0  0  0
    3.5095    0.9215   -1.5913 H   0  0  0  0  0  0  0  0  0  0  0  0
    5.9486    0.8846   -0.8112 H   0  0  0  0  0  0  0  0  0  0  0  0
    5.0030    2.7582    1.3698 H   0  0  0  0  0  0  0  0  0  0  0  0
    2.9196    1.7433    1.2961 H   0  0  0  0  0  0  0  0  0  0  0  0
    2.7341    2.8099   -0.0903 H   0  0  0  0  0  0  0  0  0  0  0  0
    0.0863   -1.5040   -0.2207 H   0  0  0  0  0  0  0  0  0  0  0  0
    4.5841   -0.0663    1.7684 H   0  0  0  0  0  0  0  0  0  0  0  0
    1.0175    3.0391   -1.9277 H   0  0  0  0  0  0  0  0  0  0  0  0
   -0.7058    3.3047   -1.7602 H   0  0  0  0  0  0  0  0  0  0  0  0
    0.1825    2.5810   -0.4221 H   0  0  0  0  0  0  0  0  0  0  0  0
    2.6608   -2.2135   -1.3194 H   0  0  0  0  0  0  0  0  0  0  0  0
    3.0111   -1.4475   -2.8877 H   0  0  0  0  0  0  0  0  0  0  0  0
    2.1134   -2.9648   -2.8076 H   0  0  0  0  0  0  0  0  0  0  0  0
    7.6661    2.5817   -0.2425 H   0  0  0  0  0  0  0  0  0  0  0  0
    8.5600    2.4223    2.2801 H   0  0  0  0  0  0  0  0  0  0  0  0
    9.6020    2.9532    0.9899 H   0  0  0  0  0  0  0  0  0  0  0  0
    9.4583    0.0632    1.9934 H   0  0  0  0  0  0  0  0  0  0  0  0
   11.6366    1.1171    0.1618 H   0  0  0  0  0  0  0  0  0  0  0  0
    6.6113   -1.4216    1.2915 H   0  0  0  0  0  0  0  0  0  0  0  0
    6.0394   -1.6875   -0.3730 H   0  0  0  0  0  0  0  0  0  0  0  0
    5.1240   -2.3424    0.9792 H   0  0  0  0  0  0  0  0  0  0  0  0
    9.9417   -0.1493   -1.6111 H   0  0  0  0  0  0  0  0  0  0  0  0
   11.1360    1.8950   -2.1864 H   0  0  0  0  0  0  0  0  0  0  0  0
    9.4178    2.0579   -2.6108 H   0  0  0  0  0  0  0  0  0  0  0  0
   10.0510    2.8781   -1.1944 H   0  0  0  0  0  0  0  0  0  0  0  0
    5.5733    4.8506    0.5684 H   0  0  0  0  0  0  0  0  0  0  0  0
    5.2379    5.1985   -1.1401 H   0  0  0  0  0  0  0  0  0  0  0  0
    3.8973    4.7542   -0.0626 H   0  0  0  0  0  0  0  0  0  0  0  0
   11.6993   -1.0310   -0.3373 H   0  0  0  0  0  0  0  0  0  0  0  0
   11.4181    1.4747    4.5386 H   0  0  0  0  0  0  0  0  0  0  0  0
   10.5069    0.0287    4.0577 H   0  0  0  0  0  0  0  0  0  0  0  0
    9.6950    1.6267    4.1420 H   0  0  0  0  0  0  0  0  0  0  0  0
 15  1  1  1
  1 16  1  0
  2 15  1  0
  2 22  1  0
  3 21  1  0
  3 34  1  0
  4 27  1  0
  4 37  1  0
 25  5  1  1
  5 96  1  0
 31  6  1  0
  6102  1  0
  7 34  2  0
 42  8  1  0
 46  8  1  0
  9 46  1  0
  9 51  1  0
 47 10  1  0
 54 10  1  0
 48 11  1  0
 11 61  1  0
 12 54  1  0
 12 59  1  0
 56 13  1  0
 13 62  1  0
 57 14  1  0
 14133  1  0
 15 18  1  0
 15 19  1  0
 16 17  1  0
 16 24  1  0
 16 63  1  6
 17 20  1  0
 17 28  1  0
 17 64  1  1
 18 20  1  0
 18 65  1  0
 18 66  1  0
 19 21  1  0
 19 67  1  0
 19 68  1  0
 20 69  1  0
 20 70  1  0
 21 23  1  0
 21 71  1  1
 22 23  1  0
 22 29  1  0
 22 72  1  1
 23 73  1  0
 23 74  1  0
 24 30  1  0
 24 33  1  0
 24 75  1  1
 25 26  1  0
 25 27  1  0
 25 32  1  0
 26 34  1  0
 26 35  1  0
 26 76  1  6
 27 31  1  0
 27 77  1  1
 28 78  1  0
 28 79  1  0
 28 80  1  0
 29 38  1  0
 29 81  1  0
 29 82  1  0
 30 39  1  0
 30 83  1  0
 30 84  1  0
 31 36  1  0
 31 85  1  1
 32 37  1  0
 32 40  2  0
 33 86  1  0
 33 87  1  0
 33 88  1  0
 35 36  2  0
 35 89  1  0
 36 43  1  0
 37 90  1  0
 37 91  1  0
 38 41  2  0
 38 92  1  0
 39 93  1  0
 39 94  1  0
 39 95  1  0
 40 45  1  0
 40 97  1  0
 41 42  1  0
 41 52  1  0
 42 44  1  0
 42 98  1  6
 43 99  1  0
 43100  1  0
 43101  1  0
 44 50  1  0
 44 53  1  0
 44103  1  6
 45 50  2  0
 45104  1  0
 46 49  1  0
 46105  1  6
 47 48  1  0
 47 51  1  0
 47106  1  6
 48 49  1  0
 48107  1  1
 49108  1  0
 49109  1  0
 50110  1  0
 51 58  1  0
 51111  1  1
 52112  1  0
 52113  1  0
 52114  1  0
 53115  1  0
 53116  1  0
 53117  1  0
 54 55  1  0
 54118  1  6
 55 56  1  0
 55119  1  0
 55120  1  0
 56 57  1  0
 56121  1  1
 57 59  1  0
 57122  1  6
 58123  1  0
 58124  1  0
 58125  1  0
 59 60  1  0
 59126  1  6
 60127  1  0
 60128  1  0
 60129  1  0
 61130  1  0
 61131  1  0
 61132  1  0
 62134  1  0
 62135  1  0
 62136  1  0
M  END
>  <PUBCHEM_COMPOUND_CID>  (1) 
6321424

>  <PUBCHEM_COMPOUND_CANONICALIZED>  (1) 
1

>  <PUBCHEM_CACTVS_COMPLEXITY>  (1) 
1680

>  <PUBCHEM_CACTVS_HBOND_ACCEPTOR>  (1) 
14

>  <PUBCHEM_CACTVS_HBOND_DONOR>  (1) 
3

>  <PUBCHEM_CACTVS_ROTATABLE_BOND>  (1) 
8

>  <PUBCHEM_CACTVS_SUBSKEYS>  (1) 
AAADcfB8PAAAAAAAAAAAAAAAAAAAASAAAAAkSJEiAAAAAEAAAAAAGgAACAAADVSwgAMCCAAABgCIAiDSCAAAAAAgAAAICAEAAAgZFBYAIQAiUAAF4AAPsAPK7OzOgAAAAAAAAAAAAAAAAAAAAAAAAAAAAA==

>  <PUBCHEM_IUPAC_OPENEYE_NAME>  (1) 
(1R,4S,5'S,6R,6'R,8R,10E,12S,13S,14E,16E,20R,21R,24S)-21,24-dihydroxy-12-[(2R,4S,5S,6S)-5-[(2S,4S,5S,6S)-5-hydroxy-4-methoxy-6-methyl-tetrahydropyran-2-yl]oxy-4-methoxy-6-methyl-tetrahydropyran-2-yl]oxy-5',11,13,22-tetramethyl-6'-[(1S)-1-methylpropyl]spiro[3,7,19-trioxatetracyclo[15.6.1.14,8.020,24]pentacosa-10,14,16,22-tetraene-6,2'-tetrahydropyran]-2-one

>  <PUBCHEM_IUPAC_CAS_NAME>  (1) 
(1R,4S,5'S,6R,6'R,8R,10E,12S,13S,14E,16E,20R,21R,24S)-6'-[(2S)-butan-2-yl]-21,24-dihydroxy-12-[[(2R,4S,5S,6S)-5-[[(2S,4S,5S,6S)-5-hydroxy-4-methoxy-6-methyl-2-oxanyl]oxy]-4-methoxy-6-methyl-2-oxanyl]oxy]-5',11,13,22-tetramethyl-2-spiro[3,7,19-trioxatetracyclo[15.6.1.14,8.020,24]pentacosa-10,14,16,22-tetraene-6,2'-oxane]one

>  <PUBCHEM_IUPAC_NAME_MARKUP>  (1) 
(1<I>R</I>,4<I>S</I>,5&apos;<I>S</I>,6<I>R</I>,6&apos;<I>R</I>,8<I>R</I>,10<I>E</I>,12<I>S</I>,13<I>S</I>,14<I>E</I>,16<I>E</I>,20<I>R</I>,21<I>R</I>,24<I>S</I>)-6&apos;-[(2<I>S</I>)-butan-2-yl]-21,24-dihydroxy-12-[(2<I>R</I>,4<I>S</I>,5<I>S</I>,6<I>S</I>)-5-[(2<I>S</I>,4<I>S</I>,5<I>S</I>,6<I>S</I>)-5-hydroxy-4-methoxy-6-methyloxan-2-yl]oxy-4-methoxy-6-methyloxan-2-yl]oxy-5&apos;,11,13,22-tetramethylspiro[3,7,19-trioxatetracyclo[15.6.1.1<SUP>4,8</SUP>.0<SUP>20,24</SUP>]pentacosa-10,14,16,22-tetraene-6,2&apos;-oxane]-2-one

>  <PUBCHEM_IUPAC_NAME>  (1) 
(1R,4S,5'S,6R,6'R,8R,10E,12S,13S,14E,16E,20R,21R,24S)-6'-[(2S)-butan-2-yl]-21,24-dihydroxy-12-[(2R,4S,5S,6S)-5-[(2S,4S,5S,6S)-5-hydroxy-4-methoxy-6-methyloxan-2-yl]oxy-4-methoxy-6-methyloxan-2-yl]oxy-5',11,13,22-tetramethylspiro[3,7,19-trioxatetracyclo[15.6.1.14,8.020,24]pentacosa-10,14,16,22-tetraene-6,2'-oxane]-2-one

>  <PUBCHEM_IUPAC_SYSTEMATIC_NAME>  (1) 
(1R,4S,5'S,6R,6'R,8R,10E,12S,13S,14E,16E,20R,21R,24S)-6'-[(2S)-butan-2-yl]-12-[(2R,4S,5S,6S)-4-methoxy-5-[(2S,4S,5S,6S)-4-methoxy-6-methyl-5-oxidanyl-oxan-2-yl]oxy-6-methyl-oxan-2-yl]oxy-5',11,13,22-tetramethyl-21,24-bis(oxidanyl)spiro[3,7,19-trioxatetracyclo[15.6.1.14,8.020,24]pentacosa-10,14,16,22-tetraene-6,2'-oxane]-2-one

>  <PUBCHEM_IUPAC_TRADITIONAL_NAME>  (1) 
(1R,4S,5'S,6R,6'R,8R,10E,12S,13S,14E,16E,20R,21R,24S)-21,24-dihydroxy-12-[(2R,4S,5S,6S)-5-[(2S,4S,5S,6S)-5-hydroxy-4-methoxy-6-methyl-tetrahydropyran-2-yl]oxy-4-methoxy-6-methyl-tetrahydropyran-2-yl]oxy-5',11,13,22-tetramethyl-6'-[(1S)-1-methylpropyl]spiro[3,7,19-trioxatetracyclo[15.6.1.14,8.020,24]pentacosa-10,14,16,22-tetraene-6,2'-tetrahydropyran]-2-one

>  <PUBCHEM_IUPAC_INCHI>  (1) 
InChI=1S/C48H74O14/c1-11-25(2)43-28(5)17-18-47(62-43)23-34-20-33(61-47)16-15-27(4)42(26(3)13-12-14-32-24-55-45-40(49)29(6)19-35(46(51)58-34)48(32,45)52)59-39-22-37(54-10)44(31(8)57-39)60-38-21-36(53-9)41(50)30(7)56-38/h12-15,19,25-26,28,30-31,33-45,49-50,52H,11,16-18,20-24H2,1-10H3/b13-12+,27-15+,32-14+/t25-,26-,28-,30-,31-,33+,34-,35-,36-,37-,38-,39-,40+,41-,42-,43+,44-,45+,47+,48+/m0/s1

>  <PUBCHEM_IUPAC_INCHIKEY>  (1) 
AZSNMRSAGSSBNP-XPNPUAGNSA-N

>  <PUBCHEM_XLOGP3_AA>  (1) 
4.1

>  <PUBCHEM_EXACT_MASS>  (1) 
874.50785703

>  <PUBCHEM_MOLECULAR_FORMULA>  (1) 
C48H74O14

>  <PUBCHEM_MOLECULAR_WEIGHT>  (1) 
875.1

>  <PUBCHEM_SMILES>  (1) 
CC[C@H](C)[C@@H]1[C@H](CC[C@@]2(O1)C[C@@H]3C[C@H](O2)C/C=C(/[C@H]([C@H](/C=C/C=C/4\CO[C@H]5[C@@]4([C@@H](C=C([C@H]5O)C)C(=O)O3)O)C)O[C@H]6C[C@@H]([C@H]([C@@H](O6)C)O[C@H]7C[C@@H]([C@H]([C@@H](O7)C)O)OC)OC)\C)C

>  <PUBCHEM_CONNECTIVITY_SMILES>  (1) 
CCC(C)C1C(CCC2(O1)CC3CC(O2)CC=C(C(C(C=CC=C4COC5C4(C(C=C(C5O)C)C(=O)O3)O)C)OC6CC(C(C(O6)C)OC7CC(C(C(O7)C)O)OC)OC)C)C

>  <PUBCHEM_CACTVS_TPSA>  (1) 
170

>  <PUBCHEM_MONOISOTOPIC_WEIGHT>  (1) 
874.50785703

>  <PUBCHEM_TOTAL_CHARGE>  (1) 
0

>  <PUBCHEM_HEAVY_ATOM_COUNT>  (1) 
62

>  <PUBCHEM_ATOM_DEF_STEREO_COUNT>  (1) 
20

>  <PUBCHEM_ATOM_UDEF_STEREO_COUNT>  (1) 
0

>  <PUBCHEM_BOND_DEF_STEREO_COUNT>  (1) 
3

>  <PUBCHEM_BOND_UDEF_STEREO_COUNT>  (1) 
0

>  <PUBCHEM_ISOTOPIC_ATOM_COUNT>  (1) 
0

>  <PUBCHEM_COMPONENT_COUNT>  (1) 
1

>  <PUBCHEM_CACTVS_TAUTO_COUNT>  (1) 
-1

>  <PUBCHEM_COORDINATE_TYPE>  (1) 
1
5
255

>  <PUBCHEM_BONDANNOTATIONS>  (1) 
15  1  5
47  10  6
54  10  6
48  11  5
56  13  5
57  14  6
16  63  6
17  28  6
21  71  5
22  72  5
24  33  6
26  76  6
27  77  5
44  53  5
25  5  5
51  58  5
59  60  5
31  6  6
42  8  5
46  8  6

$$$$
